<?xml version="1.0" encoding="UTF-8"?>

<!-- generated on 2022-04-05 16:28:41 by Eclipse SUMO netedit Version 1.11.0
<configuration xmlns:xsi="http://www.w3.org/2001/XMLSchema-instance" xsi:noNamespaceSchemaLocation="http://sumo.dlr.de/xsd/netconvertConfiguration.xsd">

    <input>
        <sumo-net-file value="/home/violin/Documents/scenario/aggressive-merge/merge.net.xml"/>
    </input>

    <output>
        <output-file value="/home/violin/Documents/scenario/aggressive-merge/merge.net.xml"/>
    </output>

    <processing>
        <geometry.min-radius.fix.railways value="false"/>
        <geometry.max-grade.fix value="false"/>
        <offset.disable-normalization value="true"/>
        <lefthand value="false"/>
    </processing>

    <junctions>
        <no-turnarounds value="true"/>
        <junctions.corner-detail value="5"/>
        <junctions.limit-turn-speed value="5.5"/>
        <rectangular-lane-cut value="false"/>
    </junctions>

    <pedestrian>
        <walkingareas value="false"/>
    </pedestrian>

    <report>
        <aggregate-warnings value="5"/>
    </report>

</configuration>
-->

<net version="1.9" junctionCornerDetail="5" limitTurnSpeed="5.50" xmlns:xsi="http://www.w3.org/2001/XMLSchema-instance" xsi:noNamespaceSchemaLocation="http://sumo.dlr.de/xsd/net_file.xsd">

    <location netOffset="0.00,0.00" convBoundary="0.00,-50.00,200.00,0.00" origBoundary="-10000000000.00,-10000000000.00,10000000000.00,10000000000.00" projParameter="!"/>

    <edge id=":J1_0" function="internal">
        <lane id=":J1_0_0" index="0" speed="13.89" length="34.27" shape="56.15,-5.99 62.06,-4.69 71.16,-3.24 81.24,-2.08 90.09,-1.60"/>
    </edge>
    <edge id=":J1_1" function="internal">
        <lane id=":J1_1_0" index="0" speed="13.89" length="34.30" shape="55.79,-1.60 90.09,-1.60"/>
        <lane id=":J1_1_1" index="1" speed="13.89" length="34.30" shape="55.79,1.60 90.09,1.60"/>
    </edge>

    <edge id="E0" from="J0" to="J1" priority="2" spreadType="center">
        <lane id="E0_0" index="0" speed="13.89" length="55.79" shape="0.00,-1.60 55.79,-1.60"/>
        <lane id="E0_1" index="1" speed="13.89" length="55.79" shape="0.00,1.60 55.79,1.60"/>
    </edge>
    <edge id="E1" from="J2" to="J1" priority="1" spreadType="center" shape="0.00,-50.00 8.58,-40.21 15.84,-31.87 23.30,-23.84 34.22,-15.58 48.07,-8.48 61.23,-4.43 100.00,0.00">
        <lane id="E1_0" index="0" speed="13.89" length="72.75" shape="-0.00,-50.00 8.58,-40.21 15.84,-31.87 23.30,-23.84 34.22,-15.58 48.07,-8.48 56.15,-5.99"/>
    </edge>
    <edge id="E2" from="J1" to="J3" priority="2" spreadType="center">
        <lane id="E2_0" index="0" speed="13.89" length="109.91" shape="90.09,-1.60 200.00,-1.60"/>
        <lane id="E2_1" index="1" speed="13.89" length="109.91" shape="90.09,1.60 200.00,1.60"/>
    </edge>

    <junction id="J0" type="dead_end" x="0.00" y="0.00" incLanes="" intLanes="" shape="0.00,3.20 0.00,-3.20"/>
    <junction id="J1" type="priority" x="100.00" y="0.00" incLanes="E1_0 E0_0 E0_1" intLanes=":J1_0_0 :J1_1_0 :J1_1_1" shape="90.09,3.20 90.09,-3.20 82.81,-3.18 77.39,-3.23 72.93,-3.53 68.54,-4.24 63.30,-5.54 56.34,-7.61 55.96,-4.38 55.79,-3.20 55.79,3.20">
        <request index="0" response="110" foes="110" cont="0"/>
        <request index="1" response="000" foes="001" cont="0"/>
        <request index="2" response="000" foes="001" cont="0"/>
    </junction>
    <junction id="J2" type="dead_end" x="0.00" y="-50.00" incLanes="" intLanes="" shape="-1.20,-48.95 1.20,-51.05"/>
    <junction id="J3" type="dead_end" x="200.00" y="0.00" incLanes="E2_0 E2_1" intLanes="" shape="200.00,-3.20 200.00,3.20"/>

    <connection from="E0" to="E2" fromLane="0" toLane="0" via=":J1_1_0" dir="s" state="M"/>
    <connection from="E0" to="E2" fromLane="1" toLane="1" via=":J1_1_1" dir="s" state="M"/>
    <connection from="E1" to="E2" fromLane="0" toLane="0" via=":J1_0_0" dir="s" state="m"/>

    <connection from=":J1_0" to="E2" fromLane="0" toLane="0" dir="s" state="M"/>
    <connection from=":J1_1" to="E2" fromLane="0" toLane="0" dir="s" state="M"/>
    <connection from=":J1_1" to="E2" fromLane="1" toLane="1" dir="s" state="M"/>

</net>
